
Circuit: voltage divider netlist

Doing analysis at TEMP = 27.000000 and TNOM = 27.000000



No. of Data Rows : 1
in = 2.000000e+00
out = 1.333333e+00
Note: No ".plot", ".print", or ".fourier" lines; no simulations run
